Version 4
SHEET 1 2660 1432
WIRE 1056 -240 1040 -240
WIRE 1152 -240 1136 -240
WIRE 1264 -240 1216 -240
WIRE 784 -128 320 -128
WIRE 1040 -128 1040 -240
WIRE 1040 -128 992 -128
WIRE 1152 -128 1040 -128
WIRE 1264 -128 1264 -240
WIRE 1264 -128 1216 -128
WIRE 1280 -128 1264 -128
WIRE 784 -80 784 -128
WIRE 992 -80 992 -128
WIRE -544 48 -544 32
WIRE 784 48 784 0
WIRE 784 48 752 48
WIRE 992 48 992 0
WIRE 1328 48 992 48
WIRE 1648 48 1408 48
WIRE 1760 48 1648 48
WIRE 1808 48 1760 48
WIRE 1824 48 1808 48
WIRE -848 96 -848 48
WIRE 784 96 784 48
WIRE 992 96 992 48
WIRE 320 112 320 -128
WIRE 448 112 320 112
WIRE 1824 128 1824 48
WIRE 448 144 448 112
WIRE 448 144 368 144
WIRE 512 144 448 144
WIRE 576 144 512 144
WIRE 624 144 576 144
WIRE -544 160 -544 128
WIRE -496 160 -544 160
WIRE 1648 160 1648 48
WIRE -544 192 -544 160
WIRE 320 224 320 112
WIRE 416 224 368 224
WIRE 448 224 416 224
WIRE 512 224 448 224
WIRE 576 224 512 224
WIRE 624 224 576 224
WIRE 784 224 784 176
WIRE 784 224 720 224
WIRE 848 224 784 224
WIRE -848 240 -848 176
WIRE 416 240 416 224
WIRE 1824 272 1824 208
WIRE -544 304 -544 272
WIRE 272 304 240 304
WIRE 672 304 640 304
WIRE 992 304 992 176
WIRE 1040 304 992 304
WIRE 1152 304 1040 304
WIRE 1264 304 1216 304
WIRE 1280 304 1264 304
WIRE 1648 320 1648 224
WIRE -96 336 -96 304
WIRE -96 336 -288 336
WIRE -48 336 -96 336
WIRE 48 336 16 336
WIRE 320 336 320 320
WIRE 416 336 416 304
WIRE 416 336 320 336
WIRE -96 384 -96 336
WIRE 320 384 320 336
WIRE 624 384 320 384
WIRE 720 384 720 320
WIRE 720 384 624 384
WIRE 1760 384 1760 48
WIRE 1968 384 1760 384
WIRE 1968 400 1968 384
WIRE 1040 416 1040 304
WIRE 1056 416 1040 416
WIRE 1152 416 1136 416
WIRE 1264 416 1264 304
WIRE 1264 416 1216 416
WIRE -288 432 -288 336
WIRE -256 432 -288 432
WIRE 112 432 48 432
WIRE 256 432 192 432
WIRE 624 432 624 384
WIRE 624 432 608 432
WIRE 848 448 848 224
WIRE 848 448 768 448
WIRE 912 448 848 448
WIRE 944 448 912 448
WIRE 992 448 944 448
WIRE 624 464 624 432
WIRE 1760 464 1760 384
WIRE -528 496 -576 496
WIRE -448 496 -464 496
WIRE -256 496 -448 496
WIRE 224 496 48 496
WIRE 336 496 304 496
WIRE 816 528 768 528
WIRE 848 528 816 528
WIRE 912 528 848 528
WIRE 944 528 912 528
WIRE 992 528 944 528
WIRE 816 544 816 528
WIRE 1968 544 1968 480
WIRE -448 560 -448 496
WIRE -416 560 -448 560
WIRE -256 560 -336 560
WIRE 192 560 48 560
WIRE 288 560 192 560
WIRE 384 560 368 560
WIRE 624 560 624 544
WIRE 192 592 192 560
WIRE -352 624 -480 624
WIRE -256 624 -272 624
WIRE 720 640 720 384
WIRE 816 640 816 608
WIRE 816 640 720 640
WIRE 1760 640 1760 544
WIRE 1968 640 1968 608
WIRE 1968 640 1760 640
WIRE 192 672 192 656
WIRE -416 688 -528 688
WIRE -256 688 -336 688
WIRE -256 752 -400 752
WIRE 176 752 48 752
WIRE 1312 752 1136 752
WIRE 1536 752 1376 752
WIRE -400 768 -400 752
WIRE 1760 768 1760 640
WIRE -256 816 -336 816
WIRE 80 816 48 816
WIRE -336 832 -336 816
WIRE 1136 832 1136 752
WIRE 1216 832 1136 832
WIRE 1392 832 1296 832
WIRE 1536 832 1536 752
WIRE 1536 832 1456 832
WIRE -400 864 -400 832
WIRE -96 880 -96 848
WIRE 544 928 512 928
WIRE -336 944 -336 896
WIRE 1760 944 1760 848
WIRE 1136 960 1136 832
WIRE 1136 960 1024 960
WIRE 1216 960 1136 960
WIRE 1536 960 1536 832
WIRE 1536 960 1472 960
WIRE -448 992 -448 560
WIRE -96 992 -448 992
WIRE 64 992 -16 992
WIRE 176 992 176 752
WIRE 176 992 64 992
WIRE 544 992 512 992
WIRE 64 1024 64 992
WIRE 896 1024 736 1024
WIRE 912 1024 896 1024
WIRE 1024 1024 1024 960
WIRE 1024 1024 992 1024
WIRE 1136 1024 1088 1024
WIRE 896 1072 896 1024
WIRE 1504 1088 1472 1088
WIRE 64 1120 64 1088
WIRE 1504 1152 1472 1152
WIRE 896 1184 896 1152
FLAG 1648 320 0
FLAG -848 240 0
FLAG -848 416 0
FLAG -848 336 Vcc
FLAG 512 992 0
FLAG 80 816 0
FLAG -96 880 0
FLAG 1504 1088 0
FLAG 1504 1152 0
FLAG 896 1184 0
FLAG 1760 944 0
FLAG 1824 272 0
FLAG 1808 48 Vout
FLAG 1216 1088 Vout
FLAG 736 928 Vout
FLAG 624 560 0
FLAG 192 672 0
FLAG -336 944 0
FLAG -480 624 0
FLAG -576 496 0
FLAG -528 688 0
FLAG -400 864 0
FLAG 64 1120 0
FLAG 1280 -128 0
FLAG 1280 304 0
FLAG 48 336 0
FLAG 240 304 G1
FLAG 256 432 G1
FLAG 640 304 G2
FLAG 336 496 G2
FLAG 1536 960 REF
FLAG 1760 640 REF
FLAG -544 304 0
FLAG -544 32 Vin
FLAG -848 48 Vin
FLAG -496 160 Vsupply
FLAG 752 48 Vin
FLAG 384 560 CS
FLAG 608 432 CS
FLAG 512 928 COMP
FLAG 176 992 COMP
FLAG -96 304 Vcc
SYMBOL voltage -848 80 R0
WINDOW 123 0 0 Left 0
WINDOW 39 0 0 Left 0
SYMATTR InstName V3
SYMATTR Value 220
SYMBOL ind2 768 -96 R0
SYMATTR InstName L1
SYMATTR Value 2.08m
SYMATTR Type ind
SYMBOL ind2 768 80 R0
SYMATTR InstName L2
SYMATTR Value 2.08m
SYMATTR Type ind
SYMBOL ind2 976 -96 R0
SYMATTR InstName L3
SYMATTR Value 8.14µ
SYMATTR Type ind
SYMBOL ind2 976 80 R0
SYMATTR InstName L4
SYMATTR Value 8.14µ
SYMATTR Type ind
SYMBOL ind 1312 64 R270
WINDOW 0 32 56 VTop 2
WINDOW 3 5 56 VBottom 2
SYMATTR InstName L5
SYMATTR Value 160µ
SYMATTR SpiceLine Rser=40m
SYMBOL polcap 1632 160 R0
WINDOW 3 24 56 Left 2
SYMATTR Value 330µ
SYMATTR InstName C1
SYMATTR Description Capacitor
SYMATTR Type cap
SYMATTR SpiceLine V=100 Irms=720m Rser=56m Lser=0
SYMBOL res 1808 112 R0
SYMATTR InstName R1
SYMATTR Value 1.44
SYMBOL PowerProducts\\LTC3723-1 -96 608 R0
SYMATTR InstName U1
SYMBOL Optos\\MOC207 640 992 M0
SYMATTR InstName U2
SYMBOL References\\LT1431 1344 1056 R0
SYMATTR InstName U3
SYMBOL voltage -848 320 R0
WINDOW 123 0 0 Left 0
WINDOW 39 0 0 Left 0
SYMATTR InstName V4
SYMATTR Value 12
SYMBOL res 880 1056 R0
SYMATTR InstName R2
SYMATTR Value 50k
SYMBOL res 1744 448 R0
SYMATTR InstName R3
SYMATTR Value 70.5k
SYMBOL res 1744 752 R0
SYMATTR InstName R4
SYMATTR Value 18.55k
SYMBOL res 1952 384 R0
SYMATTR InstName R5
SYMATTR Value 3.36k
SYMBOL cap 1952 544 R0
SYMATTR InstName C2
SYMATTR Value 2.2n
SYMBOL cap 1376 736 R90
WINDOW 0 0 32 VBottom 2
WINDOW 3 32 32 VTop 2
SYMATTR InstName C3
SYMATTR Value 120p
SYMBOL cap 1456 816 R90
WINDOW 0 0 32 VBottom 2
WINDOW 3 32 32 VTop 2
SYMATTR InstName C4
SYMATTR Value 36.7n
SYMBOL res 1312 816 R90
WINDOW 0 0 56 VBottom 2
WINDOW 3 32 56 VTop 2
SYMATTR InstName R6
SYMATTR Value 5.9k
SYMBOL res 608 448 R0
SYMATTR InstName R8
SYMATTR Value 200m
SYMBOL res 384 544 R90
WINDOW 0 0 56 VBottom 2
WINDOW 3 32 56 VTop 2
SYMATTR InstName R11
SYMATTR Value 2k
SYMBOL cap 176 592 R0
SYMATTR InstName C6
SYMATTR Value 150p
SYMBOL cap -352 832 R0
SYMATTR InstName C7
SYMATTR Value 0.32n
SYMBOL res -320 672 R90
WINDOW 0 0 56 VBottom 2
WINDOW 3 32 56 VTop 2
SYMATTR InstName R12
SYMATTR Value 250k
SYMBOL res -320 544 R90
WINDOW 0 0 56 VBottom 2
WINDOW 3 32 56 VTop 2
SYMATTR InstName R13
SYMATTR Value 250k
SYMBOL res -256 608 R90
WINDOW 0 0 56 VBottom 2
WINDOW 3 32 56 VTop 2
SYMATTR InstName R14
SYMATTR Value 33k
SYMBOL cap -464 480 R90
WINDOW 0 0 32 VBottom 2
WINDOW 3 32 32 VTop 2
SYMATTR InstName C8
SYMATTR Value 0.47µ
SYMBOL cap -416 768 R0
SYMATTR InstName C9
SYMATTR Value 68n
SYMBOL res 0 976 R90
WINDOW 0 0 56 VBottom 2
WINDOW 3 32 56 VTop 2
SYMATTR InstName R9
SYMATTR Value 2.5k
SYMBOL cap 48 1024 R0
SYMATTR InstName C10
SYMATTR Value 1n
SYMBOL res 208 416 R90
WINDOW 0 0 56 VBottom 2
WINDOW 3 32 56 VTop 2
SYMATTR InstName R10
SYMATTR Value 10
SYMBOL res 320 480 R90
WINDOW 0 0 56 VBottom 2
WINDOW 3 32 56 VTop 2
SYMATTR InstName R15
SYMATTR Value 10
SYMBOL schottky 1216 -144 R90
WINDOW 0 0 32 VBottom 2
WINDOW 3 32 32 VTop 2
SYMATTR InstName D2
SYMATTR Value RBR3M60A
SYMATTR Description Diode
SYMATTR Type diode
SYMBOL nmos 272 224 R0
WINDOW 3 -56 115 Left 2
SYMATTR InstName M1
SYMATTR Value IPI600N25N3
SYMBOL nmos 672 224 R0
WINDOW 3 -30 106 Left 2
SYMATTR InstName M2
SYMATTR Value IPI600N25N3
SYMBOL res 1008 1008 R90
WINDOW 0 0 56 VBottom 2
WINDOW 3 32 56 VTop 2
SYMATTR InstName R17
SYMATTR Value 1k
SYMBOL schottky 1216 288 R90
WINDOW 0 0 32 VBottom 2
WINDOW 3 32 32 VTop 2
SYMATTR InstName D1
SYMATTR Value RBR3M60A
SYMATTR Description Diode
SYMATTR Type diode
SYMBOL res 1232 1008 R90
WINDOW 0 0 56 VBottom 2
WINDOW 3 32 56 VTop 2
SYMATTR InstName R7
SYMATTR Value 16k
SYMBOL cap 1088 1008 R90
WINDOW 0 0 32 VBottom 2
WINDOW 3 32 32 VTop 2
SYMATTR InstName C5
SYMATTR Value 15p
SYMBOL cap 16 320 R90
WINDOW 0 0 32 VBottom 2
WINDOW 3 32 32 VTop 2
SYMATTR InstName C11
SYMATTR Value 0.1µ
SYMBOL res -560 176 R0
SYMATTR InstName R16
SYMATTR Value 10
SYMBOL res -560 32 R0
SYMATTR InstName R18
SYMATTR Value 170
SYMBOL cap 1216 400 R90
WINDOW 0 0 32 VBottom 2
WINDOW 3 32 32 VTop 2
SYMATTR InstName C12
SYMATTR Value 200p
SYMBOL res 1152 400 R90
WINDOW 0 0 56 VBottom 2
WINDOW 3 32 56 VTop 2
SYMATTR InstName R19
SYMATTR Value 22
SYMBOL cap 1216 -256 R90
WINDOW 0 0 32 VBottom 2
WINDOW 3 32 32 VTop 2
SYMATTR InstName C13
SYMATTR Value 200p
SYMBOL res 1152 -256 R90
WINDOW 0 0 56 VBottom 2
WINDOW 3 32 56 VTop 2
SYMATTR InstName R20
SYMATTR Value 22
SYMBOL cap 400 240 R0
SYMATTR InstName C14
SYMATTR Value 1100p
SYMBOL res 352 128 R0
SYMATTR InstName R21
SYMATTR Value 250
SYMBOL res 432 128 R0
SYMATTR InstName R22
SYMATTR Value 250
SYMBOL res 496 128 R0
SYMATTR InstName R23
SYMATTR Value 250
SYMBOL res 560 128 R0
SYMATTR InstName R24
SYMATTR Value 250
SYMBOL res 608 128 R0
SYMATTR InstName R25
SYMATTR Value 250
SYMBOL cap 800 544 R0
SYMATTR InstName C15
SYMATTR Value 1100p
SYMBOL res 752 432 R0
SYMATTR InstName R26
SYMATTR Value 250
SYMBOL res 832 432 R0
SYMATTR InstName R27
SYMATTR Value 250
SYMBOL res 896 432 R0
SYMATTR InstName R28
SYMATTR Value 250
SYMBOL res 928 432 R0
SYMATTR InstName R29
SYMATTR Value 250
SYMBOL res 976 432 R0
SYMATTR InstName R30
SYMATTR Value 250
TEXT 816 -168 Left 2 !K1 L1 L2 L3 L4 0.9995
TEXT -816 -120 Left 2 !.tran 0 40m 0
