Version 4
SHEET 1 2220 680
WIRE 1120 -288 880 -288
WIRE 1232 -288 1120 -288
WIRE 1520 -288 1376 -288
WIRE 1616 -288 1584 -288
WIRE 1680 -288 1616 -288
WIRE 1808 -288 1760 -288
WIRE 1904 -288 1808 -288
WIRE 1920 -288 1904 -288
WIRE 1808 -256 1808 -288
WIRE 1920 -256 1920 -288
WIRE 1120 -240 1120 -288
WIRE 1232 -240 1232 -288
WIRE 1376 -240 1376 -288
WIRE 240 -192 240 -224
WIRE 240 -112 240 -128
WIRE 1120 -112 1120 -160
WIRE 1120 -112 1072 -112
WIRE 1232 -112 1232 -160
WIRE 1232 -112 1120 -112
WIRE 1376 -112 1376 -160
WIRE 1808 -112 1808 -192
WIRE 1808 -112 1376 -112
WIRE 1920 -112 1920 -176
WIRE 1920 -112 1808 -112
WIRE 1120 -64 1120 -112
WIRE 1232 -64 1232 -112
WIRE 1376 -64 1376 -112
WIRE 1808 -48 1808 -112
WIRE 240 -16 240 -32
WIRE 880 64 880 -288
WIRE 1120 64 1120 16
WIRE 1232 64 1232 16
WIRE 1232 64 1120 64
WIRE 1232 80 1232 64
WIRE 1376 80 1376 16
WIRE 1520 80 1376 80
WIRE 1616 80 1616 -288
WIRE 1616 80 1584 80
WIRE 880 240 880 144
WIRE 1056 240 880 240
WIRE 1232 240 1232 160
WIRE 1232 240 1056 240
WIRE 1056 288 1056 240
FLAG 240 -16 0
FLAG 240 -128 Vin
FLAG 240 128 0
FLAG 240 -192 0
FLAG 240 -304 G1
FLAG 240 48 G2
FLAG 1904 -288 Vout
FLAG 1072 -112 Vin
FLAG 1808 -48 0
FLAG 832 80 0
FLAG 832 128 G1
FLAG 1184 96 0
FLAG 1184 144 G2
FLAG 1056 288 0
SYMBOL voltage 240 -128 R0
WINDOW 123 0 0 Left 0
WINDOW 39 0 0 Left 0
SYMATTR InstName V1
SYMATTR Value 400
SYMBOL voltage 240 -320 R0
SYMATTR InstName V2
SYMATTR Value PULSE(0 1 0 0 0 0.0000012 0.00001)
SYMBOL voltage 240 32 R0
SYMATTR InstName V3
SYMATTR Value PULSE(0 1 0.000005 0 0 0.0000012 0.00001)
SYMBOL ind2 1248 -144 R180
WINDOW 0 36 80 Left 0
WINDOW 3 36 40 Left 0
SYMATTR InstName L1
SYMATTR Value 25.6µ
SYMATTR Type ind
SYMBOL ind2 1248 32 R180
WINDOW 0 36 80 Left 0
WINDOW 3 36 40 Left 0
SYMATTR InstName L2
SYMATTR Value 25.6µ
SYMATTR Type ind
SYMBOL ind2 1360 -144 M180
WINDOW 0 36 80 Left 0
WINDOW 3 36 40 Left 0
SYMATTR InstName L3
SYMATTR Value 100n
SYMATTR Type ind
SYMBOL ind2 1360 32 M180
WINDOW 0 36 80 Left 0
WINDOW 3 36 40 Left 0
SYMATTR InstName L4
SYMATTR Value 100n
SYMATTR Type ind
SYMBOL ind 1664 -272 R270
WINDOW 0 32 56 VTop 2
WINDOW 3 5 56 VBottom 2
SYMATTR InstName L5
SYMATTR Value 100µ
SYMBOL res 1904 -272 R0
SYMATTR InstName R1
SYMATTR Value 1.44
SYMBOL polcap 1792 -256 R0
WINDOW 3 24 56 Left 2
SYMATTR Value 100n
SYMATTR InstName C1
SYMATTR Description Capacitor
SYMATTR Type cap
SYMATTR SpiceLine V=100 Irms=720m Lser=0
SYMBOL sw 880 48 R0
SYMATTR InstName S1
SYMATTR Value MYSW
SYMBOL sw 1232 64 R0
SYMATTR InstName S2
SYMATTR Value MYSW
SYMBOL diode 1520 -272 R270
WINDOW 0 32 32 VTop 2
WINDOW 3 0 32 VBottom 2
SYMATTR InstName D1
SYMBOL diode 1520 96 R270
WINDOW 0 32 32 VTop 2
WINDOW 3 0 32 VBottom 2
SYMATTR InstName D2
TEXT 224 224 Left 2 !.tran 0 20m 0
TEXT 224 256 Left 2 !.model MYSW SW(Ron=0.001 Roff=1000Meg Vt=0.5 Vh=0)
TEXT 1216 -360 Left 2 !K1 L1 L2 L3 L4 1
