Version 4
SHEET 1 2660 1432
WIRE 784 -128 464 -128
WIRE 1152 -128 992 -128
WIRE 1280 -128 1216 -128
WIRE 784 -80 784 -128
WIRE 992 -80 992 -128
WIRE 784 48 784 0
WIRE 784 48 240 48
WIRE 992 48 992 0
WIRE 1328 48 992 48
WIRE 1648 48 1408 48
WIRE 1760 48 1648 48
WIRE 1808 48 1760 48
WIRE 1824 48 1808 48
WIRE 784 96 784 48
WIRE 992 96 992 48
WIRE 1824 128 1824 48
WIRE 1648 160 1648 48
WIRE 240 176 240 48
WIRE 464 224 464 -128
WIRE 784 224 784 176
WIRE 1824 272 1824 208
WIRE 416 304 384 304
WIRE 736 304 704 304
WIRE 992 304 992 176
WIRE 1152 304 992 304
WIRE 1280 304 1216 304
WIRE 240 320 240 256
WIRE 1648 320 1648 224
WIRE -96 336 -96 304
WIRE -96 336 -288 336
WIRE -96 384 -96 336
WIRE 464 384 464 320
WIRE 624 384 464 384
WIRE 784 384 784 320
WIRE 784 384 624 384
WIRE 1760 384 1760 48
WIRE 1968 384 1760 384
WIRE 1968 400 1968 384
WIRE -288 432 -288 336
WIRE -256 432 -288 432
WIRE 112 432 48 432
WIRE 384 432 384 304
WIRE 384 432 192 432
WIRE 1760 464 1760 384
WIRE -528 496 -576 496
WIRE -448 496 -464 496
WIRE -256 496 -448 496
WIRE 224 496 48 496
WIRE 704 496 704 304
WIRE 704 496 304 496
WIRE 1968 544 1968 480
WIRE -448 560 -448 496
WIRE -416 560 -448 560
WIRE -256 560 -336 560
WIRE 256 560 48 560
WIRE 352 560 256 560
WIRE 624 560 624 384
WIRE 624 560 432 560
WIRE 256 592 256 560
WIRE 624 592 624 560
WIRE -352 624 -480 624
WIRE -256 624 -272 624
WIRE 1760 640 1760 544
WIRE 1968 640 1968 608
WIRE 1968 640 1760 640
WIRE 256 672 256 656
WIRE -416 688 -528 688
WIRE -256 688 -336 688
WIRE 624 688 624 672
WIRE -256 752 -400 752
WIRE 176 752 48 752
WIRE 1344 752 1168 752
WIRE 1568 752 1408 752
WIRE -400 768 -400 752
WIRE -256 816 -336 816
WIRE 80 816 48 816
WIRE -336 832 -336 816
WIRE 1168 832 1168 752
WIRE 1248 832 1168 832
WIRE 1424 832 1328 832
WIRE 1568 832 1568 752
WIRE 1568 832 1488 832
WIRE -400 864 -400 832
WIRE -96 880 -96 848
WIRE -336 944 -336 896
WIRE 1168 960 1168 832
WIRE 1168 960 1056 960
WIRE 1248 960 1168 960
WIRE 1568 960 1568 832
WIRE 1568 960 1504 960
WIRE 1760 960 1760 640
WIRE 1760 960 1568 960
WIRE 1056 1024 1056 960
WIRE 1168 1024 1120 1024
WIRE 1760 1040 1760 960
WIRE 1056 1088 1056 1024
WIRE 1536 1088 1504 1088
WIRE -448 1136 -448 560
WIRE -96 1136 -448 1136
WIRE 64 1136 -16 1136
WIRE 176 1136 176 752
WIRE 176 1136 64 1136
WIRE 656 1136 176 1136
WIRE 1536 1152 1504 1152
WIRE 64 1168 64 1136
WIRE 656 1200 624 1200
WIRE 1760 1216 1760 1120
WIRE 1056 1232 1056 1168
WIRE 1056 1232 848 1232
WIRE 64 1264 64 1232
WIRE 1056 1280 1056 1232
WIRE 1056 1392 1056 1360
FLAG 1648 320 0
FLAG 240 320 0
FLAG -32 32 0
FLAG -32 -48 Vcc
FLAG -96 304 Vcc
FLAG 624 1200 0
FLAG 80 816 0
FLAG -96 880 0
FLAG 1536 1088 0
FLAG 1536 1152 0
FLAG 1056 1392 0
FLAG 1760 1216 0
FLAG 1824 272 0
FLAG 1808 48 Vout
FLAG 1248 1088 Vout
FLAG 848 1136 Vout
FLAG 624 688 0
FLAG 256 672 0
FLAG -336 944 0
FLAG -480 624 0
FLAG -576 496 0
FLAG -528 688 0
FLAG -400 864 0
FLAG 64 1264 0
FLAG 1280 -128 0
FLAG 1280 304 0
SYMBOL voltage 240 160 R0
WINDOW 123 0 0 Left 0
WINDOW 39 0 0 Left 0
SYMATTR InstName V3
SYMATTR Value 220
SYMBOL ind2 768 -96 R0
SYMATTR InstName L1
SYMATTR Value 3.6m
SYMATTR Type ind
SYMBOL ind2 768 80 R0
SYMATTR InstName L2
SYMATTR Value 3.6m
SYMATTR Type ind
SYMBOL ind2 976 -96 R0
SYMATTR InstName L3
SYMATTR Value 14.06µ
SYMATTR Type ind
SYMBOL ind2 976 80 R0
SYMATTR InstName L4
SYMATTR Value 14.06µ
SYMATTR Type ind
SYMBOL ind 1312 64 R270
WINDOW 0 32 56 VTop 2
WINDOW 3 5 56 VBottom 2
SYMATTR InstName L5
SYMATTR Value 80µ
SYMATTR SpiceLine Rser=40m
SYMBOL polcap 1632 160 R0
WINDOW 3 24 56 Left 2
SYMATTR Value 330µ
SYMATTR InstName C1
SYMATTR Description Capacitor
SYMATTR Type cap
SYMATTR SpiceLine V=100 Irms=720m Rser=56m Lser=0
SYMBOL res 1808 112 R0
SYMATTR InstName R1
SYMATTR Value 1.44
SYMBOL PowerProducts\\LTC3723-1 -96 608 R0
SYMATTR InstName U1
SYMBOL Optos\\MOC207 752 1200 M0
SYMATTR InstName U2
SYMBOL References\\LT1431 1376 1056 R0
SYMATTR InstName U3
SYMBOL voltage -32 -64 R0
WINDOW 123 0 0 Left 0
WINDOW 39 0 0 Left 0
SYMATTR InstName V4
SYMATTR Value 12
SYMBOL res 1040 1264 R0
SYMATTR InstName R2
SYMATTR Value 50k
SYMBOL res 1744 448 R0
SYMATTR InstName R3
SYMATTR Value 70.5k
SYMBOL res 1744 1024 R0
SYMATTR InstName R4
SYMATTR Value 18.55k
SYMBOL res 1952 384 R0
SYMATTR InstName R5
SYMATTR Value 3.36k
SYMBOL cap 1952 544 R0
SYMATTR InstName C2
SYMATTR Value 2.2n
SYMBOL cap 1408 736 R90
WINDOW 0 0 32 VBottom 2
WINDOW 3 32 32 VTop 2
SYMATTR InstName C3
SYMATTR Value 120p
SYMBOL cap 1488 816 R90
WINDOW 0 0 32 VBottom 2
WINDOW 3 32 32 VTop 2
SYMATTR InstName C4
SYMATTR Value 36.7n
SYMBOL res 1344 816 R90
WINDOW 0 0 56 VBottom 2
WINDOW 3 32 56 VTop 2
SYMATTR InstName R6
SYMATTR Value 5.9k
SYMBOL res 608 576 R0
SYMATTR InstName R8
SYMATTR Value 250m
SYMBOL res 448 544 R90
WINDOW 0 0 56 VBottom 2
WINDOW 3 32 56 VTop 2
SYMATTR InstName R11
SYMATTR Value 2k
SYMBOL cap 240 592 R0
SYMATTR InstName C6
SYMATTR Value 150p
SYMBOL cap -352 832 R0
SYMATTR InstName C7
SYMATTR Value 0.32n
SYMBOL res -320 672 R90
WINDOW 0 0 56 VBottom 2
WINDOW 3 32 56 VTop 2
SYMATTR InstName R12
SYMATTR Value 250k
SYMBOL res -320 544 R90
WINDOW 0 0 56 VBottom 2
WINDOW 3 32 56 VTop 2
SYMATTR InstName R13
SYMATTR Value 250k
SYMBOL res -256 608 R90
WINDOW 0 0 56 VBottom 2
WINDOW 3 32 56 VTop 2
SYMATTR InstName R14
SYMATTR Value 33k
SYMBOL cap -464 480 R90
WINDOW 0 0 32 VBottom 2
WINDOW 3 32 32 VTop 2
SYMATTR InstName C8
SYMATTR Value 0.47µ
SYMBOL cap -416 768 R0
SYMATTR InstName C9
SYMATTR Value 68n
SYMBOL res 0 1120 R90
WINDOW 0 0 56 VBottom 2
WINDOW 3 32 56 VTop 2
SYMATTR InstName R9
SYMATTR Value 2.5k
SYMBOL cap 48 1168 R0
SYMATTR InstName C10
SYMATTR Value 1n
SYMBOL res 208 416 R90
WINDOW 0 0 56 VBottom 2
WINDOW 3 32 56 VTop 2
SYMATTR InstName R10
SYMATTR Value 10
SYMBOL res 320 480 R90
WINDOW 0 0 56 VBottom 2
WINDOW 3 32 56 VTop 2
SYMATTR InstName R15
SYMATTR Value 10
SYMBOL schottky 1216 -144 R90
WINDOW 0 0 32 VBottom 2
WINDOW 3 32 32 VTop 2
SYMATTR InstName D2
SYMATTR Value RBR3M60A
SYMATTR Description Diode
SYMATTR Type diode
SYMBOL nmos 416 224 R0
SYMATTR InstName M1
SYMATTR Value IPI600N25N3
SYMBOL nmos 736 224 R0
SYMATTR InstName M2
SYMATTR Value IPI600N25N3
SYMBOL res 1040 1072 R0
SYMATTR InstName R17
SYMATTR Value 1k
SYMBOL schottky 1216 288 R90
WINDOW 0 0 32 VBottom 2
WINDOW 3 32 32 VTop 2
SYMATTR InstName D1
SYMATTR Value RBR3M60A
SYMATTR Description Diode
SYMATTR Type diode
SYMBOL res 1264 1008 R90
WINDOW 0 0 56 VBottom 2
WINDOW 3 32 56 VTop 2
SYMATTR InstName R7
SYMATTR Value 16k
SYMBOL cap 1120 1008 R90
WINDOW 0 0 32 VBottom 2
WINDOW 3 32 32 VTop 2
SYMATTR InstName C5
SYMATTR Value 15p
TEXT 816 -168 Left 2 !K1 L1 L2 L3 L4 1
TEXT -592 1416 Left 2 !.tran 0 40m 0
